/*--------------------------------*- C++ -*----------------------------------*\
  =========                 |
  \\      /  F ield         | OpenFOAM: The Open Source CFD Toolbox
   \\    /   O peration     | Website:  https://openfoam.org
    \\  /    A nd           | Version:  6
     \\/     M anipulation  |
\*---------------------------------------------------------------------------*/
FoamFile
{
    version     2.0;
    format      binary;
    class       polyBoundaryMesh;
    location    "constant/polyMesh";
    object      boundary;
}
// * * * * * * * * * * * * * * * * * * * * * * * * * * * * * * * * * * * * * //

6
(
    atmosphere
    {
        type            patch;
        nFaces          600;
        startFace       93880;
    }
    wall
    {
        type            wall;
        inGroups        1(wall);
        nFaces          1910;
        startFace       94480;
    }
    defaultFaces
    {
        type            empty;
        inGroups        1(empty);
        nFaces          13600;
        startFace       96390;
    }
    diffuser
    {
        type            patch;
        nFaces          16;
        startFace       109990;
    }
    inlet
    {
        type            patch;
        nFaces          40;
        startFace       110006;
    }
    outlet
    {
        type            patch;
        nFaces          50;
        startFace       110046;
    }
)

// ************************************************************************* //
