/*--------------------------------*- C++ -*----------------------------------*\
| =========                 |                                                 |
| \\      /  F ield         | OpenFOAM: The Open Source CFD Toolbox           |
|  \\    /   O peration     | Version:  4.x                                   |
|   \\  /    A nd           | Web:      www.OpenFOAM.org                      |
|    \\/     M anipulation  |                                                 |
\*---------------------------------------------------------------------------*/
FoamFile
{
    version     2.0;
    format      ascii;
    class       volScalarField;
    object      p_rgh;
}
// * * * * * * * * * * * * * * * * * * * * * * * * * * * * * * * * * * * * * //

dimensions          [1 -1 -2 0 0 0 0];

internalField       uniform 1e5;

boundaryField
{

    diffuser
    {
        type            fixedFluxPressure;
        value           $internalField;
    }

    inlet
    {
        type            fixedFluxPressure;
        value           $internalField;
    }

    outlet
    {
        type            pulseFixedValue;
        period          80;
        duration        0.4;
        pulseValue      4905;
        baseValue       198100;
        value           uniform 198100;
    }

    /*outlet
    {
        type            pressure;
        p              uniform 188290;
    }*/

    atmosphere
    {
        type            prghPressure;
        p               $internalField;
        value           $internalField;
    }
    wall
    {
        type            fixedFluxPressure;
        value           $internalField;
    }
    
    defaultFaces
    {
        type            empty;
    }
}

// * * * * * * * * * * * * * * * * * * * * * * * * * * * * * * * * * * * * * //
